122
Atoms
C      0.09000   -0.11000    0.00000
C      0.80500    1.11900    0.00000
C      2.22500    1.13900    0.00000
C      2.94700   -0.11700    0.00000
N      4.27400   -0.12200    0.00000
N      6.50200    1.17900    0.00000
C      7.15500    0.01500    0.00000
C      8.58500   -0.02600    0.00000
C      9.30600    1.33200    0.00000
C     10.80800    1.47000    0.00000
C     11.48500    0.14500    0.00000
C     12.83300    0.10400    0.00000
C     13.63500    1.42600    0.00000
N     14.99100    1.34300    0.00000
C     15.68600   -0.03100    0.00000
C      0.07100    2.48100    0.00000
C      0.78400    3.66300    0.00000
C      2.13800    3.62000    0.00000
C      2.91000    2.41700    0.00000
N      4.24000    2.45700    0.00000
C      4.91500    3.60200    0.00000
C      6.36700    3.59100    0.00000
C      7.13300    2.35600    0.00000
C      8.56400    2.43500    0.00000
C      9.34600    3.89100    0.00000
C     10.78900    3.95600    0.00000
C     11.52900    2.72500    0.00000
C     12.96500    2.70400    0.00000
N     13.69300    3.84600    0.00000
C     15.01900    3.79100    0.00000
C     15.73200    2.57100    0.00000
C      0.09200    4.97200    0.00000
C      0.78500    6.16300    0.00000
C      2.18000    6.05100    0.00000
C      2.87000    4.85800    0.00000
C      4.23300    4.85900    0.00000
C      4.93000    6.08600    0.00000
C      6.33700    6.08300    0.00000
C      7.06300    4.83500    0.00000
N      8.59100    4.98200    0.00000
C      9.29200    6.29300    0.00000
C     10.70400    6.28000    0.00000
N     11.41200    5.15800    0.00000
C     13.61800    6.33700    0.00000
C     15.02000    6.25100    0.00000
C     15.74700    5.01700    0.00000
C      0.33500    7.50800    0.00000
C      1.82300    8.36700    0.00000
C      2.77300    7.31400    0.00000
C      4.18300    7.33700    0.00000
C      4.83800    8.54200    0.00000
C      6.32000    8.58200    0.00000
C      7.06500    7.38200    0.00000
C      8.55000    7.44900    0.00000
C      9.22100    8.67000    0.00000
C     10.68100    8.71400    0.00000
C     11.40800    7.52000    0.00000
C     12.84000    7.49700    0.00000
C     13.54000    8.78500    0.00000
C     14.98600    8.73300    0.00000
C     15.83700    7.54600    0.00000
N     -0.09800    9.99300    0.00000
C      0.57500   11.12900    0.00000
C      1.97900   11.02600    0.00000
C      2.55300    9.69800    0.00000
C      4.03500    9.75300    0.00000
C      4.83800   11.07800    0.00000
C      6.29000   11.05600    0.00000
C      7.02000    9.82200    0.00000
C      8.47400    9.84500    0.00000
C      9.10700   11.01400    0.00000
C     10.51500   11.09700    0.00000
C     11.35100    9.94200    0.00000
C     12.78500   10.13300    0.00000
C     13.53600   11.44400    0.00000
C     14.91300   11.18700    0.00000
C     15.62400   10.00100    0.00000
C     -0.04600   12.34400    0.00000
C      0.69200   13.49600    0.00000
N      2.01100   13.48200    0.00000
C      2.69200   12.31300    0.00000
C      4.14200   12.32700    0.00000
C      4.91800   13.56200    0.00000
C      6.34400   13.48100    0.00000
C      7.00200   12.25000    0.00000
C      8.37700   12.23200    0.00000
C      9.05800   13.41500    0.00000
C     10.46500   13.38300    0.00000
N     11.13800   12.25300    0.00000
C     13.49800   13.15100    0.00000
C     14.87700   13.47000    0.00000
C     15.67900   12.33800    0.00000
C     -0.03800   14.77200    0.00000
N      0.63900   15.90400    0.00000
N      4.29300   14.75500    0.00000
C      4.97600   15.89400    0.00000
C      6.39500   15.93600    0.00000
C      7.08000   14.69900    0.00000
C      8.41300   14.66200    0.00000
C      9.16900   15.86700    0.00000
C     10.53500   15.79200    0.00000
C     11.25300   14.56500    0.00000
C     12.68900   14.42300    0.00000
C     13.36200   15.75000    0.00000
C     14.85600   15.85600    0.00000
C     15.56300   14.72100    0.00000
C      0.01100   17.08800    0.00000
C      0.78400   18.31300    0.00000
C      2.23400   18.31700    0.00000
N      2.91800   17.16100    0.00000
C      4.23800   17.17200    0.00000
C      4.95600   18.41600    0.00000
C      6.40700   18.44000    0.00000
C      7.11800   17.21000    0.00000
C      8.51300   17.17700    0.00000
C      9.27000   18.44700    0.00000
C     10.66100   18.44600    0.00000
C     11.31800   17.10300    0.00000
C     12.67100   17.05800    0.00000
C     13.49900   18.41300    0.00000
C     14.92700   18.39200    0.00000
C     15.61900   17.16400    0.00000
