126
XYZ file generated from GrapheneGraph
N 0.000 0.000 0.000
C 0.710 1.230 0.000
C 2.130 1.230 0.000
N 2.840 0.000 0.000
C 4.260 0.000 0.000
N 4.970 1.230 0.000
C 6.390 1.230 0.000
C 7.100 0.000 0.000
N 8.520 0.000 0.000
C 9.230 1.230 0.000
N 10.650 1.230 0.000
C 11.360 0.000 0.000
C 12.780 0.000 0.000
C 13.490 1.230 0.000
C 14.910 1.230 0.000
C 15.620 0.000 0.000
C 0.000 2.460 0.000
C 0.710 3.689 0.000
C 2.130 3.689 0.000
N 2.840 2.460 0.000
C 4.260 2.460 0.000
C 4.970 3.689 0.000
N 6.390 3.689 0.000
C 7.100 2.460 0.000
C 8.520 2.460 0.000
C 9.230 3.689 0.000
C 10.650 3.689 0.000
C 11.360 2.460 0.000
C 12.780 2.460 0.000
C 13.490 3.689 0.000
C 14.910 3.689 0.000
N 15.620 2.460 0.000
N 0.000 4.919 0.000
C 0.710 6.149 0.000
C 2.130 6.149 0.000
C 2.840 4.919 0.000
N 4.260 4.919 0.000
C 4.970 6.149 0.000
C 6.390 6.149 0.000
C 7.100 4.919 0.000
C 8.520 4.919 0.000
C 9.230 6.149 0.000
C 10.650 6.149 0.000
C 11.360 4.919 0.000
N 12.780 4.919 0.000
C 13.490 6.149 0.000
N 14.910 6.149 0.000
C 15.620 4.919 0.000
C 0.000 7.379 0.000
N 0.710 8.608 0.000
C 2.130 8.608 0.000
C 2.840 7.379 0.000
C 4.260 7.379 0.000
C 4.970 8.608 0.000
C 6.390 8.608 0.000
C 7.100 7.379 0.000
C 8.520 7.379 0.000
C 9.230 8.608 0.000
C 10.650 8.608 0.000
C 11.360 7.379 0.000
C 12.780 7.379 0.000
C 13.490 8.608 0.000
N 14.910 8.608 0.000
C 15.620 7.379 0.000
C 0.000 9.838 0.000
C 0.710 11.068 0.000
N 2.130 11.068 0.000
C 2.840 9.838 0.000
C 4.260 9.838 0.000
C 4.970 11.068 0.000
C 6.390 11.068 0.000
C 7.100 9.838 0.000
C 8.520 9.838 0.000
C 9.230 11.068 0.000
C 10.650 11.068 0.000
N 11.360 9.838 0.000
C 12.780 9.838 0.000
C 13.490 11.068 0.000
N 14.910 11.068 0.000
C 15.620 9.838 0.000
N 0.000 12.298 0.000
C 0.718 13.503 0.000
N 2.038 13.519 0.000
C 2.742 12.379 0.000
C 4.192 12.416 0.000
C 4.948 13.653 0.000
C 6.390 13.527 0.000
C 7.100 12.298 0.000
C 8.520 12.298 0.000
C 9.230 13.527 0.000
C 10.650 13.527 0.000
N 11.360 12.298 0.000
C 12.780 12.298 0.000
N 13.490 13.527 0.000
C 14.910 13.527 0.000
C 15.620 12.298 0.000
C -0.017 14.776 0.000
N 0.657 15.911 0.000
N 4.313 14.833 0.000
C 4.987 15.968 0.000
N 6.390 15.987 0.000
C 7.100 14.757 0.000
N 8.520 14.757 0.000
C 9.230 15.987 0.000
C 10.650 15.987 0.000
C 11.360 14.757 0.000
C 12.780 14.757 0.000
C 13.490 15.987 0.000
C 14.910 15.987 0.000
C 15.620 14.757 0.000
C 0.022 17.091 0.000
C 0.778 18.328 0.000
C 2.228 18.365 0.000
N 2.932 17.225 0.000
C 4.252 17.241 0.000
C 4.970 18.446 0.000
N 6.390 18.446 0.000
C 7.100 17.217 0.000
C 8.520 17.217 0.000
C 9.230 18.446 0.000
C 10.650 18.446 0.000
N 11.360 17.217 0.000
C 12.780 17.217 0.000
N 13.490 18.446 0.000
C 14.910 18.446 0.000
C 15.620 17.217 0.000
