40

C 4.545 5.048 29.501
C 5.495 3.992 29.501
C 2.099 6.46 29.501
C 0.71 6.755 29.501
C -2.099 6.46 29.501
C -3.396 5.882 29.501
C -5.495 3.992 29.501
C -6.205 2.763 29.501
C -6.792 0.0 29.501
C 6.644 1.412 29.501
C -5.495 -3.992 29.501
C -4.545 -5.048 29.501
C -6.644 -1.412 29.501
C 6.792 0.0 29.501
C -0.71 -6.755 29.501
C 2.099 -6.46 29.501
C 3.396 -5.882 29.501
C 6.205 -2.763 29.501
C -2.099 -6.46 29.501
C 5.495 -3.992 29.501
C 6.46 2.099 30.73
C 5.882 3.396 30.73
C 6.755 -0.71 30.73
C 3.992 5.495 30.73
C 2.763 6.205 30.73
C 6.46 -2.099 30.73
C 0.0 6.792 30.73
C -1.412 6.644 30.73
C -2.763 -6.205 30.73
C -5.048 4.545 30.73
C 3.992 -5.495 30.73
C -6.46 2.099 30.73
C 1.412 -6.644 30.73
C -6.46 -2.099 30.73
C -5.882 -3.396 30.73
C 0.0 -6.792 30.73
C -3.992 -5.495 30.73
C 5.048 -4.545 30.73
C -3.992 5.495 30.73
C -6.755 0.71 30.73
