587
#Made with CONAN
C	18.460	23.759	57.056
C	20.809	23.129	57.056
C	22.528	21.410	57.056
C	23.157	19.061	57.056
C	22.528	16.713	57.056
C	20.809	14.993	57.056
C	18.460	14.364	57.056
C	16.111	14.993	57.056
C	14.392	16.713	57.056
C	13.763	19.061	57.056
C	14.392	21.410	57.056
C	16.111	23.129	57.056
C	19.676	23.598	57.772
C	21.782	22.383	57.772
C	22.997	20.277	57.772
C	22.997	17.845	57.772
C	21.782	15.740	57.772
C	19.676	14.524	57.772
C	17.244	14.524	57.772
C	15.138	15.740	57.772
C	13.923	17.845	57.772
C	13.923	20.277	57.772
C	15.138	22.383	57.772
C	17.244	23.598	57.772
C	19.676	23.598	59.192
C	21.782	22.383	59.192
C	22.997	20.277	59.192
C	22.997	17.845	59.192
C	21.782	15.740	59.192
C	19.676	14.524	59.192
C	17.244	14.524	59.192
C	15.138	15.740	59.192
C	13.923	17.845	59.192
C	13.923	20.277	59.192
C	15.138	22.383	59.192
C	17.244	23.598	59.192
C	18.460	23.759	59.908
C	20.809	23.129	59.908
C	22.528	21.410	59.908
C	23.157	19.061	59.908
C	22.528	16.713	59.908
C	20.809	14.993	59.908
C	18.460	14.364	59.908
C	16.111	14.993	59.908
C	14.392	16.713	59.908
C	13.763	19.061	59.908
C	14.392	21.410	59.908
C	16.111	23.129	59.908
C	18.460	23.759	61.328
C	20.809	23.129	61.328
C	22.528	21.410	61.328
C	23.157	19.061	61.328
C	22.528	16.713	61.328
C	20.809	14.993	61.328
C	18.460	14.364	61.328
C	16.111	14.993	61.328
C	14.392	16.713	61.328
C	13.763	19.061	61.328
C	14.392	21.410	61.328
C	16.111	23.129	61.328
C	19.676	23.598	62.044
C	21.782	22.383	62.044
C	22.997	20.277	62.044
C	22.997	17.845	62.044
C	21.782	15.740	62.044
C	19.676	14.524	62.044
C	17.244	14.524	62.044
C	15.138	15.740	62.044
C	13.923	17.845	62.044
C	13.923	20.277	62.044
C	15.138	22.383	62.044
C	17.244	23.598	62.044
C	19.676	23.598	63.464
C	21.782	22.383	63.464
C	22.997	20.277	63.464
C	22.997	17.845	63.464
C	21.782	15.740	63.464
C	19.676	14.524	63.464
C	17.244	14.524	63.464
C	15.138	15.740	63.464
C	13.923	17.845	63.464
C	13.923	20.277	63.464
C	15.138	22.383	63.464
C	17.244	23.598	63.464
C	18.460	23.759	64.181
C	20.809	23.129	64.181
C	22.528	21.410	64.181
C	23.157	19.061	64.181
C	22.528	16.713	64.181
C	20.809	14.993	64.181
C	18.460	14.364	64.181
C	16.111	14.993	64.181
C	14.392	16.713	64.181
C	13.763	19.061	64.181
C	14.392	21.410	64.181
C	16.111	23.129	64.181
C	18.460	23.759	65.601
C	20.809	23.129	65.601
C	22.528	21.410	65.601
C	23.157	19.061	65.601
C	22.528	16.713	65.601
C	20.809	14.993	65.601
C	18.460	14.364	65.601
C	16.111	14.993	65.601
C	14.392	16.713	65.601
C	13.763	19.061	65.601
C	14.392	21.410	65.601
C	16.111	23.129	65.601
C	19.676	23.598	66.317
C	21.782	22.383	66.317
C	22.997	20.277	66.317
C	22.997	17.845	66.317
C	21.782	15.740	66.317
C	19.676	14.524	66.317
C	17.244	14.524	66.317
C	15.138	15.740	66.317
C	13.923	17.845	66.317
C	13.923	20.277	66.317
C	15.138	22.383	66.317
C	17.244	23.598	66.317
C	19.676	23.598	67.737
C	21.782	22.383	67.737
C	22.997	20.277	67.737
C	22.997	17.845	67.737
C	21.782	15.740	67.737
C	19.676	14.524	67.737
C	17.244	14.524	67.737
C	15.138	15.740	67.737
C	13.923	17.845	67.737
C	13.923	20.277	67.737
C	15.138	22.383	67.737
C	17.244	23.598	67.737
C	18.460	23.759	68.453
C	20.809	23.129	68.453
C	22.528	21.410	68.453
C	23.157	19.061	68.453
C	22.528	16.713	68.453
C	20.809	14.993	68.453
C	18.460	14.364	68.453
C	16.111	14.993	68.453
C	14.392	16.713	68.453
C	13.763	19.061	68.453
C	14.392	21.410	68.453
C	16.111	23.129	68.453
C	18.460	23.759	69.873
C	20.809	23.129	69.873
C	22.528	21.410	69.873
C	23.157	19.061	69.873
C	22.528	16.713	69.873
C	20.809	14.993	69.873
C	18.460	14.364	69.873
C	16.111	14.993	69.873
C	14.392	16.713	69.873
C	13.763	19.061	69.873
C	14.392	21.410	69.873
C	16.111	23.129	69.873
C	19.676	23.598	70.589
C	21.782	22.383	70.589
C	22.997	20.277	70.589
C	22.997	17.845	70.589
C	21.782	15.740	70.589
C	19.676	14.524	70.589
C	17.244	14.524	70.589
C	15.138	15.740	70.589
C	13.923	17.845	70.589
C	13.923	20.277	70.589
C	15.138	22.383	70.589
C	17.244	23.598	70.589
C	19.676	23.598	72.009
C	21.782	22.383	72.009
C	22.997	20.277	72.009
C	22.997	17.845	72.009
C	21.782	15.740	72.009
C	19.676	14.524	72.009
C	17.244	14.524	72.009
C	15.138	15.740	72.009
C	13.923	17.845	72.009
C	13.923	20.277	72.009
C	15.138	22.383	72.009
C	17.244	23.598	72.009
C	18.460	23.759	72.725
C	20.809	23.129	72.725
C	22.528	21.410	72.725
C	23.157	19.061	72.725
C	22.528	16.713	72.725
C	20.809	14.993	72.725
C	18.460	14.364	72.725
C	16.111	14.993	72.725
C	14.392	16.713	72.725
C	13.763	19.061	72.725
C	14.392	21.410	72.725
C	16.111	23.129	72.725
C	18.460	23.759	74.145
C	20.809	23.129	74.145
C	22.528	21.410	74.145
C	23.157	19.061	74.145
C	22.528	16.713	74.145
C	20.809	14.993	74.145
C	18.460	14.364	74.145
C	16.111	14.993	74.145
C	14.392	16.713	74.145
C	13.763	19.061	74.145
C	14.392	21.410	74.145
C	16.111	23.129	74.145
C	19.676	23.598	74.861
C	21.782	22.383	74.861
C	22.997	20.277	74.861
C	22.997	17.845	74.861
C	21.782	15.740	74.861
C	19.676	14.524	74.861
C	17.244	14.524	74.861
C	15.138	15.740	74.861
C	13.923	17.845	74.861
C	13.923	20.277	74.861
C	15.138	22.383	74.861
C	17.244	23.598	74.861
C	19.676	23.598	76.281
C	21.782	22.383	76.281
C	22.997	20.277	76.281
C	22.997	17.845	76.281
C	21.782	15.740	76.281
C	19.676	14.524	76.281
C	17.244	14.524	76.281
C	15.138	15.740	76.281
C	13.923	17.845	76.281
C	13.923	20.277	76.281
C	15.138	22.383	76.281
C	17.244	23.598	76.281
C	18.460	23.759	76.997
C	20.809	23.129	76.997
C	22.528	21.410	76.997
C	23.157	19.061	76.997
C	22.528	16.713	76.997
C	20.809	14.993	76.997
C	18.460	14.364	76.997
C	16.111	14.993	76.997
C	14.392	16.713	76.997
C	13.763	19.061	76.997
C	14.392	21.410	76.997
C	16.111	23.129	76.997
C	18.460	23.759	78.417
C	20.809	23.129	78.417
C	22.528	21.410	78.417
C	23.157	19.061	78.417
C	22.528	16.713	78.417
C	20.809	14.993	78.417
C	18.460	14.364	78.417
C	16.111	14.993	78.417
C	14.392	16.713	78.417
C	13.763	19.061	78.417
C	14.392	21.410	78.417
C	16.111	23.129	78.417
C	19.676	23.598	79.133
C	21.782	22.383	79.133
C	22.997	20.277	79.133
C	22.997	17.845	79.133
C	21.782	15.740	79.133
C	19.676	14.524	79.133
C	17.244	14.524	79.133
C	15.138	15.740	79.133
C	13.923	17.845	79.133
C	13.923	20.277	79.133
C	15.138	22.383	79.133
C	17.244	23.598	79.133
C	19.676	23.598	80.553
C	21.782	22.383	80.553
C	22.997	20.277	80.553
C	22.997	17.845	80.553
C	21.782	15.740	80.553
C	19.676	14.524	80.553
C	17.244	14.524	80.553
C	15.138	15.740	80.553
C	13.923	17.845	80.553
C	13.923	20.277	80.553
C	15.138	22.383	80.553
C	17.244	23.598	80.553
C	18.460	23.759	81.269
C	20.809	23.129	81.269
C	22.528	21.410	81.269
C	23.157	19.061	81.269
C	22.528	16.713	81.269
C	20.809	14.993	81.269
C	18.460	14.364	81.269
C	16.111	14.993	81.269
C	14.392	16.713	81.269
C	13.763	19.061	81.269
C	14.392	21.410	81.269
C	16.111	23.129	81.269
C	18.460	23.759	82.689
C	20.809	23.129	82.689
C	22.528	21.410	82.689
C	23.157	19.061	82.689
C	22.528	16.713	82.689
C	20.809	14.993	82.689
C	18.460	14.364	82.689
C	16.111	14.993	82.689
C	14.392	16.713	82.689
C	13.763	19.061	82.689
C	14.392	21.410	82.689
C	16.111	23.129	82.689
C	19.676	23.598	83.405
C	21.782	22.383	83.405
C	22.997	20.277	83.405
C	22.997	17.845	83.405
C	21.782	15.740	83.405
C	19.676	14.524	83.405
C	17.244	14.524	83.405
C	15.138	15.740	83.405
C	13.923	17.845	83.405
C	13.923	20.277	83.405
C	15.138	22.383	83.405
C	17.244	23.598	83.405
C	19.676	23.598	84.825
C	21.782	22.383	84.825
C	22.997	20.277	84.825
C	22.997	17.845	84.825
C	21.782	15.740	84.825
C	19.676	14.524	84.825
C	17.244	14.524	84.825
C	15.138	15.740	84.825
C	13.923	17.845	84.825
C	13.923	20.277	84.825
C	15.138	22.383	84.825
C	17.244	23.598	84.825
C	18.460	23.759	85.541
C	20.809	23.129	85.541
C	22.528	21.410	85.541
C	23.157	19.061	85.541
C	22.528	16.713	85.541
C	20.809	14.993	85.541
C	18.460	14.364	85.541
C	16.111	14.993	85.541
C	14.392	16.713	85.541
C	13.763	19.061	85.541
C	14.392	21.410	85.541
C	16.111	23.129	85.541
C	18.460	23.759	86.961
C	20.809	23.129	86.961
C	22.528	21.410	86.961
C	23.157	19.061	86.961
C	22.528	16.713	86.961
C	20.809	14.993	86.961
C	18.460	14.364	86.961
C	16.111	14.993	86.961
C	14.392	16.713	86.961
C	13.763	19.061	86.961
C	14.392	21.410	86.961
C	16.111	23.129	86.961
C	19.676	23.598	87.677
C	21.782	22.383	87.677
C	22.997	20.277	87.677
C	22.997	17.845	87.677
C	21.782	15.740	87.677
C	19.676	14.524	87.677
C	17.244	14.524	87.677
C	15.138	15.740	87.677
C	13.923	17.845	87.677
C	13.923	20.277	87.677
C	15.138	22.383	87.677
C	17.244	23.598	87.677
C	19.676	23.598	89.097
C	21.782	22.383	89.097
C	22.997	20.277	89.097
C	22.997	17.845	89.097
C	21.782	15.740	89.097
C	19.676	14.524	89.097
C	17.244	14.524	89.097
C	15.138	15.740	89.097
C	13.923	17.845	89.097
C	13.923	20.277	89.097
C	15.138	22.383	89.097
C	17.244	23.598	89.097
C	18.460	23.759	89.813
C	20.809	23.129	89.813
C	22.528	21.410	89.813
C	23.157	19.061	89.813
C	22.528	16.713	89.813
C	20.809	14.993	89.813
C	18.460	14.364	89.813
C	16.111	14.993	89.813
C	14.392	16.713	89.813
C	13.763	19.061	89.813
C	14.392	21.410	89.813
C	16.111	23.129	89.813
C	18.460	23.759	91.233
C	20.809	23.129	91.233
C	22.528	21.410	91.233
C	23.157	19.061	91.233
C	22.528	16.713	91.233
C	20.809	14.993	91.233
C	18.460	14.364	91.233
C	16.111	14.993	91.233
C	14.392	16.713	91.233
C	13.763	19.061	91.233
C	14.392	21.410	91.233
C	16.111	23.129	91.233
C	19.676	23.598	91.949
C	21.782	22.383	91.949
C	22.997	20.277	91.949
C	22.997	17.845	91.949
C	21.782	15.740	91.949
C	19.676	14.524	91.949
C	17.244	14.524	91.949
C	15.138	15.740	91.949
C	13.923	17.845	91.949
C	13.923	20.277	91.949
C	15.138	22.383	91.949
C	17.244	23.598	91.949
C	19.676	23.598	93.369
C	21.782	22.383	93.369
C	22.997	20.277	93.369
C	22.997	17.845	93.369
C	21.782	15.740	93.369
C	19.676	14.524	93.369
C	17.244	14.524	93.369
C	15.138	15.740	93.369
C	13.923	17.845	93.369
C	13.923	20.277	93.369
C	15.138	22.383	93.369
C	17.244	23.598	93.369
C	18.460	23.759	94.085
C	20.809	23.129	94.085
C	22.528	21.410	94.085
C	23.157	19.061	94.085
C	22.528	16.713	94.085
C	20.809	14.993	94.085
C	18.460	14.364	94.085
C	16.111	14.993	94.085
C	14.392	16.713	94.085
C	13.763	19.061	94.085
C	14.392	21.410	94.085
C	16.111	23.129	94.085
C	18.460	23.759	95.505
C	20.809	23.129	95.505
C	22.528	21.410	95.505
C	23.157	19.061	95.505
C	22.528	16.713	95.505
C	20.809	14.993	95.505
C	18.460	14.364	95.505
C	16.111	14.993	95.505
C	14.392	16.713	95.505
C	13.763	19.061	95.505
C	14.392	21.410	95.505
C	16.111	23.129	95.505
C	19.676	23.598	96.221
C	21.782	22.383	96.221
C	22.997	20.277	96.221
C	22.997	17.845	96.221
C	21.782	15.740	96.221
C	19.676	14.524	96.221
C	17.244	14.524	96.221
C	15.138	15.740	96.221
C	13.923	17.845	96.221
C	13.923	20.277	96.221
C	15.138	22.383	96.221
C	17.244	23.598	96.221
C	19.676	23.598	97.641
C	21.782	22.383	97.641
C	22.997	20.277	97.641
C	22.997	17.845	97.641
C	21.782	15.740	97.641
C	19.676	14.524	97.641
C	17.244	14.524	97.641
C	15.138	15.740	97.641
C	13.923	17.845	97.641
C	13.923	20.277	97.641
C	15.138	22.383	97.641
C	17.244	23.598	97.641
C	18.460	23.759	98.357
C	20.809	23.129	98.357
C	22.528	21.410	98.357
C	23.157	19.061	98.357
C	22.528	16.713	98.357
C	20.809	14.993	98.357
C	18.460	14.364	98.357
C	16.111	14.993	98.357
C	14.392	16.713	98.357
C	13.763	19.061	98.357
C	14.392	21.410	98.357
C	16.111	23.129	98.357
N	17.960	19.221	75.503
N	18.133	18.740	84.618
C	17.586	19.762	74.373
C	18.096	18.091	85.812
N	17.960	19.050	73.329
N	18.866	18.650	86.724
C	18.782	18.081	73.929
C	19.276	19.785	86.163
C	18.715	18.170	75.198
C	18.736	19.918	84.910
C	17.589	19.660	76.872
C	17.301	18.363	83.390
H	16.989	20.658	74.302
H	17.502	17.207	85.988
C	18.400	19.822	57.849
C	17.740	19.405	71.914
C	18.894	18.249	88.207
H	19.238	17.334	73.296
H	19.956	20.500	86.602
H	19.167	17.543	75.953
H	18.889	20.795	84.299
H	17.063	20.609	76.768
H	17.557	17.345	83.096
H	16.918	18.922	77.312
H	16.216	18.466	83.413
H	18.365	19.815	77.622
H	17.731	18.896	82.541
C	18.606	19.082	59.260
C	19.036	19.386	71.146
C	19.461	19.303	89.155
C	17.815	19.816	98.164
H	19.171	20.587	57.759
H	17.058	18.735	71.389
H	17.930	17.854	88.528
H	17.392	20.236	57.830
H	17.326	20.388	71.689
H	19.532	17.371	88.103
C	18.315	20.078	60.423
C	18.847	19.813	69.674
C	19.742	18.940	90.651
C	17.579	18.540	97.289
H	18.003	18.177	59.341
H	19.875	20.002	71.470
H	20.330	19.881	88.840
H	17.320	20.617	97.614
H	19.663	18.816	59.256
H	19.467	18.387	71.083
H	18.648	20.030	89.166
H	18.869	20.093	98.132
C	18.167	19.350	61.723
C	18.274	18.693	68.786
C	18.623	18.443	91.457
C	17.700	18.737	95.792
H	17.471	20.705	60.137
H	19.754	20.123	69.156
H	20.212	19.829	91.072
H	16.621	18.064	97.498
H	19.175	20.747	60.398
H	18.155	20.653	69.616
H	20.357	18.050	90.786
H	18.283	17.805	97.681
H	17.150	18.960	61.751
H	17.208	18.597	68.991
H	17.861	19.222	91.438
H	16.858	19.258	95.335
H	18.156	20.138	62.477
H	18.587	17.649	68.801
H	19.000	18.426	92.480
H	17.993	17.811	95.297
H	18.973	18.616	61.729
H	18.237	19.057	67.760
H	18.284	17.466	91.110
H	18.564	19.401	95.779
C	19.881	18.965	79.794
H	19.373	19.925	79.884
H	20.521	19.066	78.918
H	20.410	18.909	80.745
C	18.922	17.863	79.516
O	18.383	17.429	80.539
O	18.729	17.368	78.354
N	18.101	17.316	55.235
N	19.231	17.250	101.782
C	17.605	18.195	56.090
C	18.177	17.607	101.036
N	18.548	18.797	56.740
N	18.350	18.820	100.526
C	19.749	18.304	56.228
C	19.529	19.325	101.089
C	19.459	17.410	55.273
C	20.032	18.391	101.893
C	17.290	16.333	54.427
C	19.365	16.087	102.711
H	16.544	18.343	56.230
H	17.348	17.016	100.676
C	17.393	19.547	99.618
H	20.694	18.755	56.496
H	19.807	20.350	100.890
H	20.060	16.662	54.777
H	20.813	18.458	102.636
H	17.779	15.358	54.434
H	20.403	16.061	103.043
H	16.386	16.213	55.024
H	18.751	16.309	103.585
H	16.962	16.612	53.426
H	18.877	15.323	102.106
H	16.382	19.140	99.600
H	17.301	20.583	99.943
