1541
#Made with CONAN
C	2.130	0.000	57.056
C	3.550	0.000	57.056
C	6.390	0.000	57.056
C	7.810	0.000	57.056
C	10.650	0.000	57.056
C	12.070	0.000	57.056
C	14.910	0.000	57.056
C	16.330	0.000	57.056
C	19.170	0.000	57.056
C	20.590	0.000	57.056
C	23.430	0.000	57.056
C	24.850	0.000	57.056
C	27.690	0.000	57.056
C	29.110	0.000	57.056
C	31.950	0.000	57.056
C	33.370	0.000	57.056
C	36.210	0.000	57.056
C	37.630	0.000	57.056
C	1.420	1.230	57.056
C	4.260	1.230	57.056
C	5.680	1.230	57.056
C	8.520	1.230	57.056
C	9.940	1.230	57.056
C	12.780	1.230	57.056
C	14.200	1.230	57.056
C	17.040	1.230	57.056
C	18.460	1.230	57.056
C	21.300	1.230	57.056
C	22.720	1.230	57.056
C	25.560	1.230	57.056
C	26.980	1.230	57.056
C	29.820	1.230	57.056
C	31.240	1.230	57.056
C	34.080	1.230	57.056
C	35.500	1.230	57.056
C	38.340	1.230	57.056
C	2.130	2.460	57.056
C	3.550	2.460	57.056
C	6.390	2.460	57.056
C	7.810	2.460	57.056
C	10.650	2.460	57.056
C	12.070	2.460	57.056
C	14.910	2.460	57.056
C	16.330	2.460	57.056
C	19.170	2.460	57.056
C	20.590	2.460	57.056
C	23.430	2.460	57.056
C	24.850	2.460	57.056
C	27.690	2.460	57.056
C	29.110	2.460	57.056
C	31.950	2.460	57.056
C	33.370	2.460	57.056
C	36.210	2.460	57.056
C	37.630	2.460	57.056
C	1.420	3.689	57.056
C	4.260	3.689	57.056
C	5.680	3.689	57.056
C	8.520	3.689	57.056
C	9.940	3.689	57.056
C	12.780	3.689	57.056
C	14.200	3.689	57.056
C	17.040	3.689	57.056
C	18.460	3.689	57.056
C	21.300	3.689	57.056
C	22.720	3.689	57.056
C	25.560	3.689	57.056
C	26.980	3.689	57.056
C	29.820	3.689	57.056
C	31.240	3.689	57.056
C	34.080	3.689	57.056
C	35.500	3.689	57.056
C	38.340	3.689	57.056
C	2.130	4.919	57.056
C	3.550	4.919	57.056
C	6.390	4.919	57.056
C	7.810	4.919	57.056
C	10.650	4.919	57.056
C	12.070	4.919	57.056
C	14.910	4.919	57.056
C	16.330	4.919	57.056
C	19.170	4.919	57.056
C	20.590	4.919	57.056
C	23.430	4.919	57.056
C	24.850	4.919	57.056
C	27.690	4.919	57.056
C	29.110	4.919	57.056
C	31.950	4.919	57.056
C	33.370	4.919	57.056
C	36.210	4.919	57.056
C	37.630	4.919	57.056
C	1.420	6.149	57.056
C	4.260	6.149	57.056
C	5.680	6.149	57.056
C	8.520	6.149	57.056
C	9.940	6.149	57.056
C	12.780	6.149	57.056
C	14.200	6.149	57.056
C	17.040	6.149	57.056
C	18.460	6.149	57.056
C	21.300	6.149	57.056
C	22.720	6.149	57.056
C	25.560	6.149	57.056
C	26.980	6.149	57.056
C	29.820	6.149	57.056
C	31.240	6.149	57.056
C	34.080	6.149	57.056
C	35.500	6.149	57.056
C	38.340	6.149	57.056
C	2.130	7.379	57.056
C	3.550	7.379	57.056
C	6.390	7.379	57.056
C	7.810	7.379	57.056
C	10.650	7.379	57.056
C	12.070	7.379	57.056
C	14.910	7.379	57.056
C	16.330	7.379	57.056
C	19.170	7.379	57.056
C	20.590	7.379	57.056
C	23.430	7.379	57.056
C	24.850	7.379	57.056
C	27.690	7.379	57.056
C	29.110	7.379	57.056
C	31.950	7.379	57.056
C	33.370	7.379	57.056
C	36.210	7.379	57.056
C	37.630	7.379	57.056
C	1.420	8.608	57.056
C	4.260	8.608	57.056
C	5.680	8.608	57.056
C	8.520	8.608	57.056
C	9.940	8.608	57.056
C	12.780	8.608	57.056
C	14.200	8.608	57.056
C	17.040	8.608	57.056
C	18.460	8.608	57.056
C	21.300	8.608	57.056
C	22.720	8.608	57.056
C	25.560	8.608	57.056
C	26.980	8.608	57.056
C	29.820	8.608	57.056
C	31.240	8.608	57.056
C	34.080	8.608	57.056
C	35.500	8.608	57.056
C	38.340	8.608	57.056
C	2.130	9.838	57.056
C	3.550	9.838	57.056
C	6.390	9.838	57.056
C	7.810	9.838	57.056
C	10.650	9.838	57.056
C	12.070	9.838	57.056
C	14.910	9.838	57.056
C	16.330	9.838	57.056
C	19.170	9.838	57.056
C	20.590	9.838	57.056
C	23.430	9.838	57.056
C	24.850	9.838	57.056
C	27.690	9.838	57.056
C	29.110	9.838	57.056
C	31.950	9.838	57.056
C	33.370	9.838	57.056
C	36.210	9.838	57.056
C	37.630	9.838	57.056
C	1.420	11.068	57.056
C	4.260	11.068	57.056
C	5.680	11.068	57.056
C	8.520	11.068	57.056
C	9.940	11.068	57.056
C	12.780	11.068	57.056
C	14.200	11.068	57.056
C	17.040	11.068	57.056
C	18.460	11.068	57.056
C	21.300	11.068	57.056
C	22.720	11.068	57.056
C	25.560	11.068	57.056
C	26.980	11.068	57.056
C	29.820	11.068	57.056
C	31.240	11.068	57.056
C	34.080	11.068	57.056
C	35.500	11.068	57.056
C	38.340	11.068	57.056
C	2.130	12.298	57.056
C	3.550	12.298	57.056
C	6.390	12.298	57.056
C	7.810	12.298	57.056
C	10.650	12.298	57.056
C	12.070	12.298	57.056
C	14.910	12.298	57.056
C	16.330	12.298	57.056
C	19.170	12.298	57.056
C	20.590	12.298	57.056
C	23.430	12.298	57.056
C	24.850	12.298	57.056
C	27.690	12.298	57.056
C	29.110	12.298	57.056
C	31.950	12.298	57.056
C	33.370	12.298	57.056
C	36.210	12.298	57.056
C	37.630	12.298	57.056
C	1.420	13.527	57.056
C	4.260	13.527	57.056
C	5.680	13.527	57.056
C	8.520	13.527	57.056
C	9.940	13.527	57.056
C	12.780	13.527	57.056
C	14.200	13.527	57.056
C	21.300	13.527	57.056
C	22.720	13.527	57.056
C	25.560	13.527	57.056
C	26.980	13.527	57.056
C	29.820	13.527	57.056
C	31.240	13.527	57.056
C	34.080	13.527	57.056
C	35.500	13.527	57.056
C	38.340	13.527	57.056
C	2.130	14.757	57.056
C	3.550	14.757	57.056
C	6.390	14.757	57.056
C	7.810	14.757	57.056
C	10.650	14.757	57.056
C	12.070	14.757	57.056
C	23.430	14.757	57.056
C	24.850	14.757	57.056
C	27.690	14.757	57.056
C	29.110	14.757	57.056
C	31.950	14.757	57.056
C	33.370	14.757	57.056
C	36.210	14.757	57.056
C	37.630	14.757	57.056
C	1.420	15.987	57.056
C	4.260	15.987	57.056
C	5.680	15.987	57.056
C	8.520	15.987	57.056
C	9.940	15.987	57.056
C	12.780	15.987	57.056
C	25.560	15.987	57.056
C	26.980	15.987	57.056
C	29.820	15.987	57.056
C	31.240	15.987	57.056
C	34.080	15.987	57.056
C	35.500	15.987	57.056
C	38.340	15.987	57.056
C	2.130	17.217	57.056
C	3.550	17.217	57.056
C	6.390	17.217	57.056
C	7.810	17.217	57.056
C	10.650	17.217	57.056
C	12.070	17.217	57.056
C	24.850	17.217	57.056
C	27.690	17.217	57.056
C	29.110	17.217	57.056
C	31.950	17.217	57.056
C	33.370	17.217	57.056
C	36.210	17.217	57.056
C	37.630	17.217	57.056
C	1.420	18.446	57.056
C	4.260	18.446	57.056
C	5.680	18.446	57.056
C	8.520	18.446	57.056
C	9.940	18.446	57.056
C	25.560	18.446	57.056
C	26.980	18.446	57.056
C	29.820	18.446	57.056
C	31.240	18.446	57.056
C	34.080	18.446	57.056
C	35.500	18.446	57.056
C	38.340	18.446	57.056
C	2.130	19.676	57.056
C	3.550	19.676	57.056
C	6.390	19.676	57.056
C	7.810	19.676	57.056
C	10.650	19.676	57.056
C	12.070	19.676	57.056
C	24.850	19.676	57.056
C	27.690	19.676	57.056
C	29.110	19.676	57.056
C	31.950	19.676	57.056
C	33.370	19.676	57.056
C	36.210	19.676	57.056
C	37.630	19.676	57.056
C	1.420	20.906	57.056
C	4.260	20.906	57.056
C	5.680	20.906	57.056
C	8.520	20.906	57.056
C	9.940	20.906	57.056
C	25.560	20.906	57.056
C	26.980	20.906	57.056
C	29.820	20.906	57.056
C	31.240	20.906	57.056
C	34.080	20.906	57.056
C	35.500	20.906	57.056
C	38.340	20.906	57.056
C	2.130	22.136	57.056
C	3.550	22.136	57.056
C	6.390	22.136	57.056
C	7.810	22.136	57.056
C	10.650	22.136	57.056
C	12.070	22.136	57.056
C	24.850	22.136	57.056
C	27.690	22.136	57.056
C	29.110	22.136	57.056
C	31.950	22.136	57.056
C	33.370	22.136	57.056
C	36.210	22.136	57.056
C	37.630	22.136	57.056
C	1.420	23.365	57.056
C	4.260	23.365	57.056
C	5.680	23.365	57.056
C	8.520	23.365	57.056
C	9.940	23.365	57.056
C	12.780	23.365	57.056
C	25.560	23.365	57.056
C	26.980	23.365	57.056
C	29.820	23.365	57.056
C	31.240	23.365	57.056
C	34.080	23.365	57.056
C	35.500	23.365	57.056
C	38.340	23.365	57.056
C	2.130	24.595	57.056
C	3.550	24.595	57.056
C	6.390	24.595	57.056
C	7.810	24.595	57.056
C	10.650	24.595	57.056
C	12.070	24.595	57.056
C	14.910	24.595	57.056
C	23.430	24.595	57.056
C	24.850	24.595	57.056
C	27.690	24.595	57.056
C	29.110	24.595	57.056
C	31.950	24.595	57.056
C	33.370	24.595	57.056
C	36.210	24.595	57.056
C	37.630	24.595	57.056
C	1.420	25.825	57.056
C	4.260	25.825	57.056
C	5.680	25.825	57.056
C	8.520	25.825	57.056
C	9.940	25.825	57.056
C	12.780	25.825	57.056
C	14.200	25.825	57.056
C	17.040	25.825	57.056
C	18.460	25.825	57.056
C	21.300	25.825	57.056
C	22.720	25.825	57.056
C	25.560	25.825	57.056
C	26.980	25.825	57.056
C	29.820	25.825	57.056
C	31.240	25.825	57.056
C	34.080	25.825	57.056
C	35.500	25.825	57.056
C	38.340	25.825	57.056
C	2.130	27.055	57.056
C	3.550	27.055	57.056
C	6.390	27.055	57.056
C	7.810	27.055	57.056
C	10.650	27.055	57.056
C	12.070	27.055	57.056
C	14.910	27.055	57.056
C	16.330	27.055	57.056
C	19.170	27.055	57.056
C	20.590	27.055	57.056
C	23.430	27.055	57.056
C	24.850	27.055	57.056
C	27.690	27.055	57.056
C	29.110	27.055	57.056
C	31.950	27.055	57.056
C	33.370	27.055	57.056
C	36.210	27.055	57.056
C	37.630	27.055	57.056
C	1.420	28.284	57.056
C	4.260	28.284	57.056
C	5.680	28.284	57.056
C	8.520	28.284	57.056
C	9.940	28.284	57.056
C	12.780	28.284	57.056
C	14.200	28.284	57.056
C	17.040	28.284	57.056
C	18.460	28.284	57.056
C	21.300	28.284	57.056
C	22.720	28.284	57.056
C	25.560	28.284	57.056
C	26.980	28.284	57.056
C	29.820	28.284	57.056
C	31.240	28.284	57.056
C	34.080	28.284	57.056
C	35.500	28.284	57.056
C	38.340	28.284	57.056
C	2.130	29.514	57.056
C	3.550	29.514	57.056
C	6.390	29.514	57.056
C	7.810	29.514	57.056
C	10.650	29.514	57.056
C	12.070	29.514	57.056
C	14.910	29.514	57.056
C	16.330	29.514	57.056
C	19.170	29.514	57.056
C	20.590	29.514	57.056
C	23.430	29.514	57.056
C	24.850	29.514	57.056
C	27.690	29.514	57.056
C	29.110	29.514	57.056
C	31.950	29.514	57.056
C	33.370	29.514	57.056
C	36.210	29.514	57.056
C	37.630	29.514	57.056
C	1.420	30.744	57.056
C	4.260	30.744	57.056
C	5.680	30.744	57.056
C	8.520	30.744	57.056
C	9.940	30.744	57.056
C	12.780	30.744	57.056
C	14.200	30.744	57.056
C	17.040	30.744	57.056
C	18.460	30.744	57.056
C	21.300	30.744	57.056
C	22.720	30.744	57.056
C	25.560	30.744	57.056
C	26.980	30.744	57.056
C	29.820	30.744	57.056
C	31.240	30.744	57.056
C	34.080	30.744	57.056
C	35.500	30.744	57.056
C	38.340	30.744	57.056
C	2.130	31.974	57.056
C	3.550	31.974	57.056
C	6.390	31.974	57.056
C	7.810	31.974	57.056
C	10.650	31.974	57.056
C	12.070	31.974	57.056
C	14.910	31.974	57.056
C	16.330	31.974	57.056
C	19.170	31.974	57.056
C	20.590	31.974	57.056
C	23.430	31.974	57.056
C	24.850	31.974	57.056
C	27.690	31.974	57.056
C	29.110	31.974	57.056
C	31.950	31.974	57.056
C	33.370	31.974	57.056
C	36.210	31.974	57.056
C	37.630	31.974	57.056
C	1.420	33.203	57.056
C	4.260	33.203	57.056
C	5.680	33.203	57.056
C	8.520	33.203	57.056
C	9.940	33.203	57.056
C	12.780	33.203	57.056
C	14.200	33.203	57.056
C	17.040	33.203	57.056
C	18.460	33.203	57.056
C	21.300	33.203	57.056
C	22.720	33.203	57.056
C	25.560	33.203	57.056
C	26.980	33.203	57.056
C	29.820	33.203	57.056
C	31.240	33.203	57.056
C	34.080	33.203	57.056
C	35.500	33.203	57.056
C	38.340	33.203	57.056
C	2.130	34.433	57.056
C	3.550	34.433	57.056
C	6.390	34.433	57.056
C	7.810	34.433	57.056
C	10.650	34.433	57.056
C	12.070	34.433	57.056
C	14.910	34.433	57.056
C	16.330	34.433	57.056
C	19.170	34.433	57.056
C	20.590	34.433	57.056
C	23.430	34.433	57.056
C	24.850	34.433	57.056
C	27.690	34.433	57.056
C	29.110	34.433	57.056
C	31.950	34.433	57.056
C	33.370	34.433	57.056
C	36.210	34.433	57.056
C	37.630	34.433	57.056
C	1.420	35.663	57.056
C	4.260	35.663	57.056
C	5.680	35.663	57.056
C	8.520	35.663	57.056
C	9.940	35.663	57.056
C	12.780	35.663	57.056
C	14.200	35.663	57.056
C	17.040	35.663	57.056
C	18.460	35.663	57.056
C	21.300	35.663	57.056
C	22.720	35.663	57.056
C	25.560	35.663	57.056
C	26.980	35.663	57.056
C	29.820	35.663	57.056
C	31.240	35.663	57.056
C	34.080	35.663	57.056
C	35.500	35.663	57.056
C	38.340	35.663	57.056
C	2.130	36.893	57.056
C	3.550	36.893	57.056
C	6.390	36.893	57.056
C	7.810	36.893	57.056
C	10.650	36.893	57.056
C	12.070	36.893	57.056
C	14.910	36.893	57.056
C	16.330	36.893	57.056
C	19.170	36.893	57.056
C	20.590	36.893	57.056
C	23.430	36.893	57.056
C	24.850	36.893	57.056
C	27.690	36.893	57.056
C	29.110	36.893	57.056
C	31.950	36.893	57.056
C	33.370	36.893	57.056
C	36.210	36.893	57.056
C	37.630	36.893	57.056
C	1.420	38.122	57.056
C	4.260	38.122	57.056
C	5.680	38.122	57.056
C	8.520	38.122	57.056
C	9.940	38.122	57.056
C	12.780	38.122	57.056
C	14.200	38.122	57.056
C	17.040	38.122	57.056
C	18.460	38.122	57.056
C	21.300	38.122	57.056
C	22.720	38.122	57.056
C	25.560	38.122	57.056
C	26.980	38.122	57.056
C	29.820	38.122	57.056
C	31.240	38.122	57.056
C	34.080	38.122	57.056
C	35.500	38.122	57.056
C	38.340	38.122	57.056
C	2.130	0.000	98.357
C	3.550	0.000	98.357
C	6.390	0.000	98.357
C	7.810	0.000	98.357
C	10.650	0.000	98.357
C	12.070	0.000	98.357
C	14.910	0.000	98.357
C	16.330	0.000	98.357
C	19.170	0.000	98.357
C	20.590	0.000	98.357
C	23.430	0.000	98.357
C	24.850	0.000	98.357
C	27.690	0.000	98.357
C	29.110	0.000	98.357
C	31.950	0.000	98.357
C	33.370	0.000	98.357
C	36.210	0.000	98.357
C	37.630	0.000	98.357
C	1.420	1.230	98.357
C	4.260	1.230	98.357
C	5.680	1.230	98.357
C	8.520	1.230	98.357
C	9.940	1.230	98.357
C	12.780	1.230	98.357
C	14.200	1.230	98.357
C	17.040	1.230	98.357
C	18.460	1.230	98.357
C	21.300	1.230	98.357
C	22.720	1.230	98.357
C	25.560	1.230	98.357
C	26.980	1.230	98.357
C	29.820	1.230	98.357
C	31.240	1.230	98.357
C	34.080	1.230	98.357
C	35.500	1.230	98.357
C	38.340	1.230	98.357
C	2.130	2.460	98.357
C	3.550	2.460	98.357
C	6.390	2.460	98.357
C	7.810	2.460	98.357
C	10.650	2.460	98.357
C	12.070	2.460	98.357
C	14.910	2.460	98.357
C	16.330	2.460	98.357
C	19.170	2.460	98.357
C	20.590	2.460	98.357
C	23.430	2.460	98.357
C	24.850	2.460	98.357
C	27.690	2.460	98.357
C	29.110	2.460	98.357
C	31.950	2.460	98.357
C	33.370	2.460	98.357
C	36.210	2.460	98.357
C	37.630	2.460	98.357
C	1.420	3.689	98.357
C	4.260	3.689	98.357
C	5.680	3.689	98.357
C	8.520	3.689	98.357
C	9.940	3.689	98.357
C	12.780	3.689	98.357
C	14.200	3.689	98.357
C	17.040	3.689	98.357
C	18.460	3.689	98.357
C	21.300	3.689	98.357
C	22.720	3.689	98.357
C	25.560	3.689	98.357
C	26.980	3.689	98.357
C	29.820	3.689	98.357
C	31.240	3.689	98.357
C	34.080	3.689	98.357
C	35.500	3.689	98.357
C	38.340	3.689	98.357
C	2.130	4.919	98.357
C	3.550	4.919	98.357
C	6.390	4.919	98.357
C	7.810	4.919	98.357
C	10.650	4.919	98.357
C	12.070	4.919	98.357
C	14.910	4.919	98.357
C	16.330	4.919	98.357
C	19.170	4.919	98.357
C	20.590	4.919	98.357
C	23.430	4.919	98.357
C	24.850	4.919	98.357
C	27.690	4.919	98.357
C	29.110	4.919	98.357
C	31.950	4.919	98.357
C	33.370	4.919	98.357
C	36.210	4.919	98.357
C	37.630	4.919	98.357
C	1.420	6.149	98.357
C	4.260	6.149	98.357
C	5.680	6.149	98.357
C	8.520	6.149	98.357
C	9.940	6.149	98.357
C	12.780	6.149	98.357
C	14.200	6.149	98.357
C	17.040	6.149	98.357
C	18.460	6.149	98.357
C	21.300	6.149	98.357
C	22.720	6.149	98.357
C	25.560	6.149	98.357
C	26.980	6.149	98.357
C	29.820	6.149	98.357
C	31.240	6.149	98.357
C	34.080	6.149	98.357
C	35.500	6.149	98.357
C	38.340	6.149	98.357
C	2.130	7.379	98.357
C	3.550	7.379	98.357
C	6.390	7.379	98.357
C	7.810	7.379	98.357
C	10.650	7.379	98.357
C	12.070	7.379	98.357
C	14.910	7.379	98.357
C	16.330	7.379	98.357
C	19.170	7.379	98.357
C	20.590	7.379	98.357
C	23.430	7.379	98.357
C	24.850	7.379	98.357
C	27.690	7.379	98.357
C	29.110	7.379	98.357
C	31.950	7.379	98.357
C	33.370	7.379	98.357
C	36.210	7.379	98.357
C	37.630	7.379	98.357
C	1.420	8.608	98.357
C	4.260	8.608	98.357
C	5.680	8.608	98.357
C	8.520	8.608	98.357
C	9.940	8.608	98.357
C	12.780	8.608	98.357
C	14.200	8.608	98.357
C	17.040	8.608	98.357
C	18.460	8.608	98.357
C	21.300	8.608	98.357
C	22.720	8.608	98.357
C	25.560	8.608	98.357
C	26.980	8.608	98.357
C	29.820	8.608	98.357
C	31.240	8.608	98.357
C	34.080	8.608	98.357
C	35.500	8.608	98.357
C	38.340	8.608	98.357
C	2.130	9.838	98.357
C	3.550	9.838	98.357
C	6.390	9.838	98.357
C	7.810	9.838	98.357
C	10.650	9.838	98.357
C	12.070	9.838	98.357
C	14.910	9.838	98.357
C	16.330	9.838	98.357
C	19.170	9.838	98.357
C	20.590	9.838	98.357
C	23.430	9.838	98.357
C	24.850	9.838	98.357
C	27.690	9.838	98.357
C	29.110	9.838	98.357
C	31.950	9.838	98.357
C	33.370	9.838	98.357
C	36.210	9.838	98.357
C	37.630	9.838	98.357
C	1.420	11.068	98.357
C	4.260	11.068	98.357
C	5.680	11.068	98.357
C	8.520	11.068	98.357
C	9.940	11.068	98.357
C	12.780	11.068	98.357
C	14.200	11.068	98.357
C	17.040	11.068	98.357
C	18.460	11.068	98.357
C	21.300	11.068	98.357
C	22.720	11.068	98.357
C	25.560	11.068	98.357
C	26.980	11.068	98.357
C	29.820	11.068	98.357
C	31.240	11.068	98.357
C	34.080	11.068	98.357
C	35.500	11.068	98.357
C	38.340	11.068	98.357
C	2.130	12.298	98.357
C	3.550	12.298	98.357
C	6.390	12.298	98.357
C	7.810	12.298	98.357
C	10.650	12.298	98.357
C	12.070	12.298	98.357
C	14.910	12.298	98.357
C	16.330	12.298	98.357
C	19.170	12.298	98.357
C	20.590	12.298	98.357
C	23.430	12.298	98.357
C	24.850	12.298	98.357
C	27.690	12.298	98.357
C	29.110	12.298	98.357
C	31.950	12.298	98.357
C	33.370	12.298	98.357
C	36.210	12.298	98.357
C	37.630	12.298	98.357
C	1.420	13.527	98.357
C	4.260	13.527	98.357
C	5.680	13.527	98.357
C	8.520	13.527	98.357
C	9.940	13.527	98.357
C	12.780	13.527	98.357
C	14.200	13.527	98.357
C	21.300	13.527	98.357
C	22.720	13.527	98.357
C	25.560	13.527	98.357
C	26.980	13.527	98.357
C	29.820	13.527	98.357
C	31.240	13.527	98.357
C	34.080	13.527	98.357
C	35.500	13.527	98.357
C	38.340	13.527	98.357
C	2.130	14.757	98.357
C	3.550	14.757	98.357
C	6.390	14.757	98.357
C	7.810	14.757	98.357
C	10.650	14.757	98.357
C	12.070	14.757	98.357
C	23.430	14.757	98.357
C	24.850	14.757	98.357
C	27.690	14.757	98.357
C	29.110	14.757	98.357
C	31.950	14.757	98.357
C	33.370	14.757	98.357
C	36.210	14.757	98.357
C	37.630	14.757	98.357
C	1.420	15.987	98.357
C	4.260	15.987	98.357
C	5.680	15.987	98.357
C	8.520	15.987	98.357
C	9.940	15.987	98.357
C	12.780	15.987	98.357
C	25.560	15.987	98.357
C	26.980	15.987	98.357
C	29.820	15.987	98.357
C	31.240	15.987	98.357
C	34.080	15.987	98.357
C	35.500	15.987	98.357
C	38.340	15.987	98.357
C	2.130	17.217	98.357
C	3.550	17.217	98.357
C	6.390	17.217	98.357
C	7.810	17.217	98.357
C	10.650	17.217	98.357
C	12.070	17.217	98.357
C	24.850	17.217	98.357
C	27.690	17.217	98.357
C	29.110	17.217	98.357
C	31.950	17.217	98.357
C	33.370	17.217	98.357
C	36.210	17.217	98.357
C	37.630	17.217	98.357
C	1.420	18.446	98.357
C	4.260	18.446	98.357
C	5.680	18.446	98.357
C	8.520	18.446	98.357
C	9.940	18.446	98.357
C	25.560	18.446	98.357
C	26.980	18.446	98.357
C	29.820	18.446	98.357
C	31.240	18.446	98.357
C	34.080	18.446	98.357
C	35.500	18.446	98.357
C	38.340	18.446	98.357
C	2.130	19.676	98.357
C	3.550	19.676	98.357
C	6.390	19.676	98.357
C	7.810	19.676	98.357
C	10.650	19.676	98.357
C	12.070	19.676	98.357
C	24.850	19.676	98.357
C	27.690	19.676	98.357
C	29.110	19.676	98.357
C	31.950	19.676	98.357
C	33.370	19.676	98.357
C	36.210	19.676	98.357
C	37.630	19.676	98.357
C	1.420	20.906	98.357
C	4.260	20.906	98.357
C	5.680	20.906	98.357
C	8.520	20.906	98.357
C	9.940	20.906	98.357
C	25.560	20.906	98.357
C	26.980	20.906	98.357
C	29.820	20.906	98.357
C	31.240	20.906	98.357
C	34.080	20.906	98.357
C	35.500	20.906	98.357
C	38.340	20.906	98.357
C	2.130	22.136	98.357
C	3.550	22.136	98.357
C	6.390	22.136	98.357
C	7.810	22.136	98.357
C	10.650	22.136	98.357
C	12.070	22.136	98.357
C	24.850	22.136	98.357
C	27.690	22.136	98.357
C	29.110	22.136	98.357
C	31.950	22.136	98.357
C	33.370	22.136	98.357
C	36.210	22.136	98.357
C	37.630	22.136	98.357
C	1.420	23.365	98.357
C	4.260	23.365	98.357
C	5.680	23.365	98.357
C	8.520	23.365	98.357
C	9.940	23.365	98.357
C	12.780	23.365	98.357
C	25.560	23.365	98.357
C	26.980	23.365	98.357
C	29.820	23.365	98.357
C	31.240	23.365	98.357
C	34.080	23.365	98.357
C	35.500	23.365	98.357
C	38.340	23.365	98.357
C	2.130	24.595	98.357
C	3.550	24.595	98.357
C	6.390	24.595	98.357
C	7.810	24.595	98.357
C	10.650	24.595	98.357
C	12.070	24.595	98.357
C	14.910	24.595	98.357
C	23.430	24.595	98.357
C	24.850	24.595	98.357
C	27.690	24.595	98.357
C	29.110	24.595	98.357
C	31.950	24.595	98.357
C	33.370	24.595	98.357
C	36.210	24.595	98.357
C	37.630	24.595	98.357
C	1.420	25.825	98.357
C	4.260	25.825	98.357
C	5.680	25.825	98.357
C	8.520	25.825	98.357
C	9.940	25.825	98.357
C	12.780	25.825	98.357
C	14.200	25.825	98.357
C	17.040	25.825	98.357
C	18.460	25.825	98.357
C	21.300	25.825	98.357
C	22.720	25.825	98.357
C	25.560	25.825	98.357
C	26.980	25.825	98.357
C	29.820	25.825	98.357
C	31.240	25.825	98.357
C	34.080	25.825	98.357
C	35.500	25.825	98.357
C	38.340	25.825	98.357
C	2.130	27.055	98.357
C	3.550	27.055	98.357
C	6.390	27.055	98.357
C	7.810	27.055	98.357
C	10.650	27.055	98.357
C	12.070	27.055	98.357
C	14.910	27.055	98.357
C	16.330	27.055	98.357
C	19.170	27.055	98.357
C	20.590	27.055	98.357
C	23.430	27.055	98.357
C	24.850	27.055	98.357
C	27.690	27.055	98.357
C	29.110	27.055	98.357
C	31.950	27.055	98.357
C	33.370	27.055	98.357
C	36.210	27.055	98.357
C	37.630	27.055	98.357
C	1.420	28.284	98.357
C	4.260	28.284	98.357
C	5.680	28.284	98.357
C	8.520	28.284	98.357
C	9.940	28.284	98.357
C	12.780	28.284	98.357
C	14.200	28.284	98.357
C	17.040	28.284	98.357
C	18.460	28.284	98.357
C	21.300	28.284	98.357
C	22.720	28.284	98.357
C	25.560	28.284	98.357
C	26.980	28.284	98.357
C	29.820	28.284	98.357
C	31.240	28.284	98.357
C	34.080	28.284	98.357
C	35.500	28.284	98.357
C	38.340	28.284	98.357
C	2.130	29.514	98.357
C	3.550	29.514	98.357
C	6.390	29.514	98.357
C	7.810	29.514	98.357
C	10.650	29.514	98.357
C	12.070	29.514	98.357
C	14.910	29.514	98.357
C	16.330	29.514	98.357
C	19.170	29.514	98.357
C	20.590	29.514	98.357
C	23.430	29.514	98.357
C	24.850	29.514	98.357
C	27.690	29.514	98.357
C	29.110	29.514	98.357
C	31.950	29.514	98.357
C	33.370	29.514	98.357
C	36.210	29.514	98.357
C	37.630	29.514	98.357
C	1.420	30.744	98.357
C	4.260	30.744	98.357
C	5.680	30.744	98.357
C	8.520	30.744	98.357
C	9.940	30.744	98.357
C	12.780	30.744	98.357
C	14.200	30.744	98.357
C	17.040	30.744	98.357
C	18.460	30.744	98.357
C	21.300	30.744	98.357
C	22.720	30.744	98.357
C	25.560	30.744	98.357
C	26.980	30.744	98.357
C	29.820	30.744	98.357
C	31.240	30.744	98.357
C	34.080	30.744	98.357
C	35.500	30.744	98.357
C	38.340	30.744	98.357
C	2.130	31.974	98.357
C	3.550	31.974	98.357
C	6.390	31.974	98.357
C	7.810	31.974	98.357
C	10.650	31.974	98.357
C	12.070	31.974	98.357
C	14.910	31.974	98.357
C	16.330	31.974	98.357
C	19.170	31.974	98.357
C	20.590	31.974	98.357
C	23.430	31.974	98.357
C	24.850	31.974	98.357
C	27.690	31.974	98.357
C	29.110	31.974	98.357
C	31.950	31.974	98.357
C	33.370	31.974	98.357
C	36.210	31.974	98.357
C	37.630	31.974	98.357
C	1.420	33.203	98.357
C	4.260	33.203	98.357
C	5.680	33.203	98.357
C	8.520	33.203	98.357
C	9.940	33.203	98.357
C	12.780	33.203	98.357
C	14.200	33.203	98.357
C	17.040	33.203	98.357
C	18.460	33.203	98.357
C	21.300	33.203	98.357
C	22.720	33.203	98.357
C	25.560	33.203	98.357
C	26.980	33.203	98.357
C	29.820	33.203	98.357
C	31.240	33.203	98.357
C	34.080	33.203	98.357
C	35.500	33.203	98.357
C	38.340	33.203	98.357
C	2.130	34.433	98.357
C	3.550	34.433	98.357
C	6.390	34.433	98.357
C	7.810	34.433	98.357
C	10.650	34.433	98.357
C	12.070	34.433	98.357
C	14.910	34.433	98.357
C	16.330	34.433	98.357
C	19.170	34.433	98.357
C	20.590	34.433	98.357
C	23.430	34.433	98.357
C	24.850	34.433	98.357
C	27.690	34.433	98.357
C	29.110	34.433	98.357
C	31.950	34.433	98.357
C	33.370	34.433	98.357
C	36.210	34.433	98.357
C	37.630	34.433	98.357
C	1.420	35.663	98.357
C	4.260	35.663	98.357
C	5.680	35.663	98.357
C	8.520	35.663	98.357
C	9.940	35.663	98.357
C	12.780	35.663	98.357
C	14.200	35.663	98.357
C	17.040	35.663	98.357
C	18.460	35.663	98.357
C	21.300	35.663	98.357
C	22.720	35.663	98.357
C	25.560	35.663	98.357
C	26.980	35.663	98.357
C	29.820	35.663	98.357
C	31.240	35.663	98.357
C	34.080	35.663	98.357
C	35.500	35.663	98.357
C	38.340	35.663	98.357
C	2.130	36.893	98.357
C	3.550	36.893	98.357
C	6.390	36.893	98.357
C	7.810	36.893	98.357
C	10.650	36.893	98.357
C	12.070	36.893	98.357
C	14.910	36.893	98.357
C	16.330	36.893	98.357
C	19.170	36.893	98.357
C	20.590	36.893	98.357
C	23.430	36.893	98.357
C	24.850	36.893	98.357
C	27.690	36.893	98.357
C	29.110	36.893	98.357
C	31.950	36.893	98.357
C	33.370	36.893	98.357
C	36.210	36.893	98.357
C	37.630	36.893	98.357
C	1.420	38.122	98.357
C	4.260	38.122	98.357
C	5.680	38.122	98.357
C	8.520	38.122	98.357
C	9.940	38.122	98.357
C	12.780	38.122	98.357
C	14.200	38.122	98.357
C	17.040	38.122	98.357
C	18.460	38.122	98.357
C	21.300	38.122	98.357
C	22.720	38.122	98.357
C	25.560	38.122	98.357
C	26.980	38.122	98.357
C	29.820	38.122	98.357
C	31.240	38.122	98.357
C	34.080	38.122	98.357
C	35.500	38.122	98.357
C	38.340	38.122	98.357
C	18.460	23.759	57.056
C	20.809	23.129	57.056
C	22.528	21.410	57.056
C	23.157	19.061	57.056
C	22.528	16.713	57.056
C	20.809	14.993	57.056
C	18.460	14.364	57.056
C	16.111	14.993	57.056
C	14.392	16.713	57.056
C	13.763	19.061	57.056
C	14.392	21.410	57.056
C	16.111	23.129	57.056
C	19.676	23.598	57.772
C	21.782	22.383	57.772
C	22.997	20.277	57.772
C	22.997	17.845	57.772
C	21.782	15.740	57.772
C	19.676	14.524	57.772
C	17.244	14.524	57.772
C	15.138	15.740	57.772
C	13.923	17.845	57.772
C	13.923	20.277	57.772
C	15.138	22.383	57.772
C	17.244	23.598	57.772
C	19.676	23.598	59.192
C	21.782	22.383	59.192
C	22.997	20.277	59.192
C	22.997	17.845	59.192
C	21.782	15.740	59.192
C	19.676	14.524	59.192
C	17.244	14.524	59.192
C	15.138	15.740	59.192
C	13.923	17.845	59.192
C	13.923	20.277	59.192
C	15.138	22.383	59.192
C	17.244	23.598	59.192
C	18.460	23.759	59.908
C	20.809	23.129	59.908
C	22.528	21.410	59.908
C	23.157	19.061	59.908
C	22.528	16.713	59.908
C	20.809	14.993	59.908
C	18.460	14.364	59.908
C	16.111	14.993	59.908
C	14.392	16.713	59.908
C	13.763	19.061	59.908
C	14.392	21.410	59.908
C	16.111	23.129	59.908
C	18.460	23.759	61.328
C	20.809	23.129	61.328
C	22.528	21.410	61.328
C	23.157	19.061	61.328
C	22.528	16.713	61.328
C	20.809	14.993	61.328
C	18.460	14.364	61.328
C	16.111	14.993	61.328
C	14.392	16.713	61.328
C	13.763	19.061	61.328
C	14.392	21.410	61.328
C	16.111	23.129	61.328
C	19.676	23.598	62.044
C	21.782	22.383	62.044
C	22.997	20.277	62.044
C	22.997	17.845	62.044
C	21.782	15.740	62.044
C	19.676	14.524	62.044
C	17.244	14.524	62.044
C	15.138	15.740	62.044
C	13.923	17.845	62.044
C	13.923	20.277	62.044
C	15.138	22.383	62.044
C	17.244	23.598	62.044
C	19.676	23.598	63.464
C	21.782	22.383	63.464
C	22.997	20.277	63.464
C	22.997	17.845	63.464
C	21.782	15.740	63.464
C	19.676	14.524	63.464
C	17.244	14.524	63.464
C	15.138	15.740	63.464
C	13.923	17.845	63.464
C	13.923	20.277	63.464
C	15.138	22.383	63.464
C	17.244	23.598	63.464
C	18.460	23.759	64.181
C	20.809	23.129	64.181
C	22.528	21.410	64.181
C	23.157	19.061	64.181
C	22.528	16.713	64.181
C	20.809	14.993	64.181
C	18.460	14.364	64.181
C	16.111	14.993	64.181
C	14.392	16.713	64.181
C	13.763	19.061	64.181
C	14.392	21.410	64.181
C	16.111	23.129	64.181
C	18.460	23.759	65.601
C	20.809	23.129	65.601
C	22.528	21.410	65.601
C	23.157	19.061	65.601
C	22.528	16.713	65.601
C	20.809	14.993	65.601
C	18.460	14.364	65.601
C	16.111	14.993	65.601
C	14.392	16.713	65.601
C	13.763	19.061	65.601
C	14.392	21.410	65.601
C	16.111	23.129	65.601
C	19.676	23.598	66.317
C	21.782	22.383	66.317
C	22.997	20.277	66.317
C	22.997	17.845	66.317
C	21.782	15.740	66.317
C	19.676	14.524	66.317
C	17.244	14.524	66.317
C	15.138	15.740	66.317
C	13.923	17.845	66.317
C	13.923	20.277	66.317
C	15.138	22.383	66.317
C	17.244	23.598	66.317
C	19.676	23.598	67.737
C	21.782	22.383	67.737
C	22.997	20.277	67.737
C	22.997	17.845	67.737
C	21.782	15.740	67.737
C	19.676	14.524	67.737
C	17.244	14.524	67.737
C	15.138	15.740	67.737
C	13.923	17.845	67.737
C	13.923	20.277	67.737
C	15.138	22.383	67.737
C	17.244	23.598	67.737
C	18.460	23.759	68.453
C	20.809	23.129	68.453
C	22.528	21.410	68.453
C	23.157	19.061	68.453
C	22.528	16.713	68.453
C	20.809	14.993	68.453
C	18.460	14.364	68.453
C	16.111	14.993	68.453
C	14.392	16.713	68.453
C	13.763	19.061	68.453
C	14.392	21.410	68.453
C	16.111	23.129	68.453
C	18.460	23.759	69.873
C	20.809	23.129	69.873
C	22.528	21.410	69.873
C	23.157	19.061	69.873
C	22.528	16.713	69.873
C	20.809	14.993	69.873
C	18.460	14.364	69.873
C	16.111	14.993	69.873
C	14.392	16.713	69.873
C	13.763	19.061	69.873
C	14.392	21.410	69.873
C	16.111	23.129	69.873
C	19.676	23.598	70.589
C	21.782	22.383	70.589
C	22.997	20.277	70.589
C	22.997	17.845	70.589
C	21.782	15.740	70.589
C	19.676	14.524	70.589
C	17.244	14.524	70.589
C	15.138	15.740	70.589
C	13.923	17.845	70.589
C	13.923	20.277	70.589
C	15.138	22.383	70.589
C	17.244	23.598	70.589
C	19.676	23.598	72.009
C	21.782	22.383	72.009
C	22.997	20.277	72.009
C	22.997	17.845	72.009
C	21.782	15.740	72.009
C	19.676	14.524	72.009
C	17.244	14.524	72.009
C	15.138	15.740	72.009
C	13.923	17.845	72.009
C	13.923	20.277	72.009
C	15.138	22.383	72.009
C	17.244	23.598	72.009
C	18.460	23.759	72.725
C	20.809	23.129	72.725
C	22.528	21.410	72.725
C	23.157	19.061	72.725
C	22.528	16.713	72.725
C	20.809	14.993	72.725
C	18.460	14.364	72.725
C	16.111	14.993	72.725
C	14.392	16.713	72.725
C	13.763	19.061	72.725
C	14.392	21.410	72.725
C	16.111	23.129	72.725
C	18.460	23.759	74.145
C	20.809	23.129	74.145
C	22.528	21.410	74.145
C	23.157	19.061	74.145
C	22.528	16.713	74.145
C	20.809	14.993	74.145
C	18.460	14.364	74.145
C	16.111	14.993	74.145
C	14.392	16.713	74.145
C	13.763	19.061	74.145
C	14.392	21.410	74.145
C	16.111	23.129	74.145
C	19.676	23.598	74.861
C	21.782	22.383	74.861
C	22.997	20.277	74.861
C	22.997	17.845	74.861
C	21.782	15.740	74.861
C	19.676	14.524	74.861
C	17.244	14.524	74.861
C	15.138	15.740	74.861
C	13.923	17.845	74.861
C	13.923	20.277	74.861
C	15.138	22.383	74.861
C	17.244	23.598	74.861
C	19.676	23.598	76.281
C	21.782	22.383	76.281
C	22.997	20.277	76.281
C	22.997	17.845	76.281
C	21.782	15.740	76.281
C	19.676	14.524	76.281
C	17.244	14.524	76.281
C	15.138	15.740	76.281
C	13.923	17.845	76.281
C	13.923	20.277	76.281
C	15.138	22.383	76.281
C	17.244	23.598	76.281
C	18.460	23.759	76.997
C	20.809	23.129	76.997
C	22.528	21.410	76.997
C	23.157	19.061	76.997
C	22.528	16.713	76.997
C	20.809	14.993	76.997
C	18.460	14.364	76.997
C	16.111	14.993	76.997
C	14.392	16.713	76.997
C	13.763	19.061	76.997
C	14.392	21.410	76.997
C	16.111	23.129	76.997
C	18.460	23.759	78.417
C	20.809	23.129	78.417
C	22.528	21.410	78.417
C	23.157	19.061	78.417
C	22.528	16.713	78.417
C	20.809	14.993	78.417
C	18.460	14.364	78.417
C	16.111	14.993	78.417
C	14.392	16.713	78.417
C	13.763	19.061	78.417
C	14.392	21.410	78.417
C	16.111	23.129	78.417
C	19.676	23.598	79.133
C	21.782	22.383	79.133
C	22.997	20.277	79.133
C	22.997	17.845	79.133
C	21.782	15.740	79.133
C	19.676	14.524	79.133
C	17.244	14.524	79.133
C	15.138	15.740	79.133
C	13.923	17.845	79.133
C	13.923	20.277	79.133
C	15.138	22.383	79.133
C	17.244	23.598	79.133
C	19.676	23.598	80.553
C	21.782	22.383	80.553
C	22.997	20.277	80.553
C	22.997	17.845	80.553
C	21.782	15.740	80.553
C	19.676	14.524	80.553
C	17.244	14.524	80.553
C	15.138	15.740	80.553
C	13.923	17.845	80.553
C	13.923	20.277	80.553
C	15.138	22.383	80.553
C	17.244	23.598	80.553
C	18.460	23.759	81.269
C	20.809	23.129	81.269
C	22.528	21.410	81.269
C	23.157	19.061	81.269
C	22.528	16.713	81.269
C	20.809	14.993	81.269
C	18.460	14.364	81.269
C	16.111	14.993	81.269
C	14.392	16.713	81.269
C	13.763	19.061	81.269
C	14.392	21.410	81.269
C	16.111	23.129	81.269
C	18.460	23.759	82.689
C	20.809	23.129	82.689
C	22.528	21.410	82.689
C	23.157	19.061	82.689
C	22.528	16.713	82.689
C	20.809	14.993	82.689
C	18.460	14.364	82.689
C	16.111	14.993	82.689
C	14.392	16.713	82.689
C	13.763	19.061	82.689
C	14.392	21.410	82.689
C	16.111	23.129	82.689
C	19.676	23.598	83.405
C	21.782	22.383	83.405
C	22.997	20.277	83.405
C	22.997	17.845	83.405
C	21.782	15.740	83.405
C	19.676	14.524	83.405
C	17.244	14.524	83.405
C	15.138	15.740	83.405
C	13.923	17.845	83.405
C	13.923	20.277	83.405
C	15.138	22.383	83.405
C	17.244	23.598	83.405
C	19.676	23.598	84.825
C	21.782	22.383	84.825
C	22.997	20.277	84.825
C	22.997	17.845	84.825
C	21.782	15.740	84.825
C	19.676	14.524	84.825
C	17.244	14.524	84.825
C	15.138	15.740	84.825
C	13.923	17.845	84.825
C	13.923	20.277	84.825
C	15.138	22.383	84.825
C	17.244	23.598	84.825
C	18.460	23.759	85.541
C	20.809	23.129	85.541
C	22.528	21.410	85.541
C	23.157	19.061	85.541
C	22.528	16.713	85.541
C	20.809	14.993	85.541
C	18.460	14.364	85.541
C	16.111	14.993	85.541
C	14.392	16.713	85.541
C	13.763	19.061	85.541
C	14.392	21.410	85.541
C	16.111	23.129	85.541
C	18.460	23.759	86.961
C	20.809	23.129	86.961
C	22.528	21.410	86.961
C	23.157	19.061	86.961
C	22.528	16.713	86.961
C	20.809	14.993	86.961
C	18.460	14.364	86.961
C	16.111	14.993	86.961
C	14.392	16.713	86.961
C	13.763	19.061	86.961
C	14.392	21.410	86.961
C	16.111	23.129	86.961
C	19.676	23.598	87.677
C	21.782	22.383	87.677
C	22.997	20.277	87.677
C	22.997	17.845	87.677
C	21.782	15.740	87.677
C	19.676	14.524	87.677
C	17.244	14.524	87.677
C	15.138	15.740	87.677
C	13.923	17.845	87.677
C	13.923	20.277	87.677
C	15.138	22.383	87.677
C	17.244	23.598	87.677
C	19.676	23.598	89.097
C	21.782	22.383	89.097
C	22.997	20.277	89.097
C	22.997	17.845	89.097
C	21.782	15.740	89.097
C	19.676	14.524	89.097
C	17.244	14.524	89.097
C	15.138	15.740	89.097
C	13.923	17.845	89.097
C	13.923	20.277	89.097
C	15.138	22.383	89.097
C	17.244	23.598	89.097
C	18.460	23.759	89.813
C	20.809	23.129	89.813
C	22.528	21.410	89.813
C	23.157	19.061	89.813
C	22.528	16.713	89.813
C	20.809	14.993	89.813
C	18.460	14.364	89.813
C	16.111	14.993	89.813
C	14.392	16.713	89.813
C	13.763	19.061	89.813
C	14.392	21.410	89.813
C	16.111	23.129	89.813
C	18.460	23.759	91.233
C	20.809	23.129	91.233
C	22.528	21.410	91.233
C	23.157	19.061	91.233
C	22.528	16.713	91.233
C	20.809	14.993	91.233
C	18.460	14.364	91.233
C	16.111	14.993	91.233
C	14.392	16.713	91.233
C	13.763	19.061	91.233
C	14.392	21.410	91.233
C	16.111	23.129	91.233
C	19.676	23.598	91.949
C	21.782	22.383	91.949
C	22.997	20.277	91.949
C	22.997	17.845	91.949
C	21.782	15.740	91.949
C	19.676	14.524	91.949
C	17.244	14.524	91.949
C	15.138	15.740	91.949
C	13.923	17.845	91.949
C	13.923	20.277	91.949
C	15.138	22.383	91.949
C	17.244	23.598	91.949
C	19.676	23.598	93.369
C	21.782	22.383	93.369
C	22.997	20.277	93.369
C	22.997	17.845	93.369
C	21.782	15.740	93.369
C	19.676	14.524	93.369
C	17.244	14.524	93.369
C	15.138	15.740	93.369
C	13.923	17.845	93.369
C	13.923	20.277	93.369
C	15.138	22.383	93.369
C	17.244	23.598	93.369
C	18.460	23.759	94.085
C	20.809	23.129	94.085
C	22.528	21.410	94.085
C	23.157	19.061	94.085
C	22.528	16.713	94.085
C	20.809	14.993	94.085
C	18.460	14.364	94.085
C	16.111	14.993	94.085
C	14.392	16.713	94.085
C	13.763	19.061	94.085
C	14.392	21.410	94.085
C	16.111	23.129	94.085
C	18.460	23.759	95.505
C	20.809	23.129	95.505
C	22.528	21.410	95.505
C	23.157	19.061	95.505
C	22.528	16.713	95.505
C	20.809	14.993	95.505
C	18.460	14.364	95.505
C	16.111	14.993	95.505
C	14.392	16.713	95.505
C	13.763	19.061	95.505
C	14.392	21.410	95.505
C	16.111	23.129	95.505
C	19.676	23.598	96.221
C	21.782	22.383	96.221
C	22.997	20.277	96.221
C	22.997	17.845	96.221
C	21.782	15.740	96.221
C	19.676	14.524	96.221
C	17.244	14.524	96.221
C	15.138	15.740	96.221
C	13.923	17.845	96.221
C	13.923	20.277	96.221
C	15.138	22.383	96.221
C	17.244	23.598	96.221
C	19.676	23.598	97.641
C	21.782	22.383	97.641
C	22.997	20.277	97.641
C	22.997	17.845	97.641
C	21.782	15.740	97.641
C	19.676	14.524	97.641
C	17.244	14.524	97.641
C	15.138	15.740	97.641
C	13.923	17.845	97.641
C	13.923	20.277	97.641
C	15.138	22.383	97.641
C	17.244	23.598	97.641
C	18.460	23.759	98.357
C	20.809	23.129	98.357
C	22.528	21.410	98.357
C	23.157	19.061	98.357
C	22.528	16.713	98.357
C	20.809	14.993	98.357
C	18.460	14.364	98.357
C	16.111	14.993	98.357
C	14.392	16.713	98.357
C	13.763	19.061	98.357
C	14.392	21.410	98.357
C	16.111	23.129	98.357
X	18.460	19.061	77.707
